21
Coordinates from ORCA-job b3lyp
  C   2.09008290149830     -0.16137156717829      0.33645360875799
  C   0.77971051379424      2.11162301351834     -0.60078506938815
  C   2.82603864950863      0.98025895799800      0.02871630963447
  C   2.16759667240023      2.12164916454850     -0.44787737433764
  C   -3.65409546115229      0.93644331604374     -0.01494679161981
  C   0.68913314217113     -0.19907740403477      0.17989133645993
  C   0.04621149928279      0.96554537775445     -0.28713764856158
  O   0.63792163453088     -2.46399704394610      0.98636247593100
  O   -1.92196667106727      1.09926652016812      1.70371426647030
  O   -1.31367495992065     -1.55567761382068      0.25374114142080
  C   0.03986285917537     -1.48449092634922      0.51751143983993
  C   -2.26215593884891      1.02798846232331      0.52877944737527
  O   -1.34018471984406      1.03510500443674     -0.53384330508678
  H   -1.63836472933339     -2.44226287254518      0.52375278594725
  H   2.57672175541913     -1.05755714111997      0.70333113085237
  H   0.24493804082906      2.98163299539487     -0.96294920541431
  H   3.90304977012639      0.98179225011679      0.15743788743781
  H   2.72974769699223      3.01650850943346     -0.69454819263755
  H   -3.78380965589080     -0.03828550844147     -0.49690112985712
  H   -4.37338885466769      1.04784290399109      0.79682428487654
  H   -3.82119414500333      1.70574360170827     -0.77500739810072
