21
Coordinates from ORCA-job hf
  C   2.08230209634571     -0.16646890428609      0.31246252262014
  C   0.76579529915159      2.09637067960163     -0.56809757974519
  C   2.80584183108425      0.97231166204907      0.01672842165502
  C   2.14264495656844      2.10752441639162     -0.42820667802973
  C   -3.62610281131435      0.92124130238851     -0.03765036573850
  C   0.69354200835296     -0.20071600224209      0.17327591653359
  C   0.04836097523573      0.95354505445292     -0.26639635983395
  O   0.64270866378206     -2.46164641314321      0.90263748422327
  O   -1.94121190320759      1.17580424283436      1.67035530623393
  O   -1.29776601249794     -1.52783269074842      0.34334164072053
  C   0.04111844228501     -1.48132710205418      0.50853234771843
  C   -2.24965662234583      1.04131947061418      0.51317614558601
  O   -1.32123874841135      1.01028994826229     -0.49348149293499
  H   -1.66348544892377     -2.37393054271289      0.59203596315624
  H   2.57477734295573     -1.05321111438156      0.65499240901918
  H   0.23247375589087      2.95874617601192     -0.91150897948004
  H   3.87135483467085      0.97528055670226      0.13042366159699
  H   2.69254058050218      2.99763747943321     -0.66327899347295
  H   -3.72429930212145     -0.03204691760441     -0.53871335104117
  H   -4.34593790301525      0.99712072126488      0.76101927157057
  H   -3.80158203498783      1.69866797716598     -0.76912729035737
