21
Coordinates from ORCA-job b3lyp
  C       2.089398     -0.161129      0.334511
  C       0.779843      2.113300     -0.598555
  C       2.825604      0.980116      0.027527
  C       2.167571      2.122311     -0.446616
  C      -3.653489      0.936782     -0.014917
  C       0.688585     -0.197848      0.179030
  C       0.046232      0.967325     -0.286345
  O       0.636568     -2.460113      0.989782
  O      -1.922129      1.086743      1.704117
  O      -1.312919     -1.555917      0.249324
  C       0.039141     -1.482498      0.516877
  C      -2.261909      1.024640      0.528831
  O      -1.339711      1.037623     -0.532545
  H      -1.637574     -2.441596      0.521459
  H       2.575622     -1.057875      0.699712
  H       0.245454      2.983940     -0.958836
  H       3.902438      0.980794      0.155289
  H       2.729809      3.017068     -0.692164
  H      -3.790773     -0.045312     -0.479146
  H      -4.372494      1.067195      0.793867
  H      -3.813086      1.693131     -0.788680
